Version 4
SHEET 1 952 960
WIRE 272 240 272 208
WIRE 736 240 736 208
WIRE 176 304 128 304
WIRE 400 304 368 304
WIRE 640 304 592 304
WIRE 864 304 832 304
WIRE 176 368 144 368
WIRE 640 368 608 368
WIRE 272 624 272 592
WIRE 736 624 736 592
WIRE 176 688 128 688
WIRE 400 688 368 688
WIRE 640 688 592 688
WIRE 864 688 832 688
WIRE 176 752 144 752
WIRE 640 752 608 752
FLAG 64 304 0
FLAG 272 208 vdd
FLAG 320 480 0
FLAG 224 480 vss
FLAG 400 304 v_a
IOPIN 400 304 In
FLAG 144 368 ve2
IOPIN 144 368 In
FLAG 528 304 0
FLAG 736 208 vdd
FLAG 784 480 0
FLAG 688 480 vss
FLAG 864 304 v_a
IOPIN 864 304 In
FLAG 608 368 ve3
IOPIN 608 368 In
FLAG 64 688 0
FLAG 272 592 vdd
FLAG 320 864 0
FLAG 224 864 vss
FLAG 400 688 v_a
IOPIN 400 688 In
FLAG 144 752 ve4
IOPIN 144 752 In
FLAG 528 688 0
FLAG 736 592 vdd
FLAG 784 864 0
FLAG 688 864 vss
FLAG 864 688 v_a
IOPIN 864 688 In
FLAG 608 752 ve5
IOPIN 608 752 In
FLAG -272 448 0
FLAG -272 368 vdd
FLAG -256 752 0
FLAG -256 672 vss
SYMBOL Switches/ADG1401 272 352 R0
SYMATTR InstName U1
SYMBOL cap 128 288 R90
WINDOW 0 0 32 VBottom 2
WINDOW 3 32 32 VTop 2
SYMATTR InstName C2
SYMATTR Value {C2}
SYMBOL Switches/ADG1401 736 352 R0
SYMATTR InstName U2
SYMBOL cap 592 288 R90
WINDOW 0 0 32 VBottom 2
WINDOW 3 32 32 VTop 2
SYMATTR InstName C1
SYMATTR Value {C3}
SYMBOL Switches/ADG1401 272 736 R0
SYMATTR InstName U3
SYMBOL cap 128 672 R90
WINDOW 0 0 32 VBottom 2
WINDOW 3 32 32 VTop 2
SYMATTR InstName C3
SYMATTR Value {C4}
SYMBOL Switches/ADG1401 736 736 R0
SYMATTR InstName U4
SYMBOL cap 592 672 R90
WINDOW 0 0 32 VBottom 2
WINDOW 3 32 32 VTop 2
SYMATTR InstName C4
SYMATTR Value {C5}
SYMBOL voltage -272 352 R0
SYMATTR InstName Vdd
SYMATTR Value 5
SYMBOL voltage -256 656 R0
SYMATTR InstName Vss
SYMATTR Value -5
TEXT 408 56 Left 2 !.param C5 1.311n\n.param C4 15.73n\n.param C3 159n\n.param C2 1.59u
