Version 4
SHEET 1 904 736
WIRE 688 -64 624 -64
WIRE 624 64 624 -64
WIRE 656 64 624 64
WIRE 752 64 720 64
WIRE 16 112 16 80
WIRE 160 112 160 80
WIRE 512 160 496 160
WIRE 624 160 624 64
WIRE 656 160 624 160
WIRE 752 160 752 64
WIRE 752 160 736 160
WIRE 368 240 240 240
WIRE 288 272 288 256
WIRE 240 288 240 240
WIRE 256 288 240 288
WIRE 368 288 368 240
WIRE 672 288 672 272
WIRE 368 304 368 288
WIRE 368 304 320 304
WIRE 400 304 368 304
WIRE 496 304 496 160
WIRE 496 304 480 304
WIRE 528 304 496 304
WIRE 624 304 624 160
WIRE 624 304 608 304
WIRE 640 304 624 304
WIRE 256 320 192 320
WIRE 752 320 752 160
WIRE 752 320 704 320
WIRE 768 320 752 320
WIRE 640 336 624 336
WIRE 208 352 192 352
WIRE 288 352 288 336
WIRE 624 368 624 336
WIRE 672 368 672 352
WIRE 208 384 192 384
FLAG 16 80 v_ss+
FLAG 160 80 v_ss-
FLAG 160 192 0
FLAG 16 192 0
FLAG 288 256 v_ss+
FLAG 288 352 v_ss-
FLAG 672 272 v_ss+
FLAG 672 368 v_ss-
FLAG 768 320 v_out
IOPIN 768 320 Out
FLAG 688 -64 v_x
IOPIN 688 -64 Out
FLAG 512 160 v_y
IOPIN 512 160 Out
FLAG 208 352 v_0
IOPIN 208 352 Out
FLAG 208 384 v_90
IOPIN 208 384 Out
FLAG 368 288 v_in
FLAG 624 368 0
SYMBOL voltage 16 96 R0
SYMATTR InstName Vss1
SYMATTR Value 15
SYMBOL voltage 160 96 R0
SYMATTR InstName Vss2
SYMATTR Value -15
SYMBOL OpAmps/LT1028 288 240 R0
SYMATTR InstName U1
SYMBOL res 496 288 R90
WINDOW 0 0 56 VBottom 2
WINDOW 3 32 56 VTop 2
SYMATTR InstName Rz
SYMATTR Value 1Meg
SYMBOL res 752 144 R90
WINDOW 0 0 56 VBottom 2
WINDOW 3 32 56 VTop 2
SYMATTR InstName Rf
SYMATTR Value 1Meg
SYMBOL OpAmps/LT1122 672 256 R0
SYMATTR InstName U3
SYMBOL cap 720 48 R90
WINDOW 0 0 32 VBottom 2
WINDOW 3 32 32 VTop 2
SYMATTR InstName Cf
SYMATTR Value 5p
SYMBOL ind 512 320 R270
WINDOW 0 32 56 VTop 2
WINDOW 3 5 56 VBottom 2
SYMATTR InstName L1
SYMATTR Value 1432
SYMBOL oscillator 112 352 R0
SYMATTR InstName X1
TEXT -8 512 Left 2 !.tran 0 150us 120us 1ns
