Version 4
SHEET 1 2280 848
WIRE 896 -208 896 -224
WIRE 864 -192 848 -192
WIRE 992 -192 944 -192
WIRE 800 -160 672 -160
WIRE 864 -160 800 -160
WIRE 880 -112 880 -128
WIRE 944 16 944 0
WIRE 1104 32 976 32
WIRE 1152 32 1104 32
WIRE 1264 32 1232 32
WIRE 1408 32 1264 32
WIRE 656 48 592 48
WIRE 688 48 656 48
WIRE 800 48 800 -160
WIRE 800 48 768 48
WIRE 912 48 800 48
WIRE 992 64 976 64
WIRE 944 96 944 80
WIRE 1104 128 1104 32
WIRE 1360 128 1360 112
WIRE 16 144 16 112
WIRE 160 144 160 112
WIRE 304 144 304 112
WIRE 1408 144 1408 32
WIRE 1408 144 1392 144
WIRE 1264 160 1264 32
WIRE 1328 160 1264 160
WIRE 800 176 800 48
WIRE 992 176 992 64
WIRE 992 176 800 176
WIRE 1408 176 1392 176
WIRE 656 192 656 48
WIRE 1360 208 1360 192
WIRE 240 368 160 368
WIRE 1248 384 1056 384
WIRE 1280 384 1248 384
WIRE 1408 384 1408 176
WIRE 1408 384 1360 384
WIRE 1456 384 1408 384
WIRE 240 400 160 400
WIRE 656 400 656 272
WIRE 720 400 656 400
WIRE 848 400 800 400
WIRE 240 432 160 432
WIRE 240 464 160 464
WIRE 1104 480 1104 464
WIRE 704 496 704 480
WIRE 1056 496 1056 384
WIRE 1072 496 1056 496
WIRE 1632 496 1632 480
WIRE 656 512 656 400
WIRE 672 512 656 512
WIRE 1248 512 1248 384
WIRE 1248 512 1136 512
WIRE 1600 512 1248 512
WIRE 1808 512 1680 512
WIRE 848 528 848 400
WIRE 848 528 736 528
WIRE 880 528 848 528
WIRE 992 528 960 528
WIRE 1072 528 992 528
WIRE 672 544 592 544
WIRE 1600 544 1584 544
WIRE 1104 560 1104 544
WIRE 704 576 704 560
WIRE 1616 592 1616 576
WIRE 992 656 992 528
FLAG 160 112 v_ss+
FLAG 304 112 v_ss-
FLAG 304 224 0
FLAG 160 224 0
FLAG 1104 464 v_ss+
FLAG 1104 560 v_ss-
FLAG 16 112 v_in
FLAG 16 224 0
FLAG 1360 112 v_ss+
FLAG 1360 208 v_ss-
FLAG 944 96 v_ss+
FLAG 944 0 v_ss-
FLAG 704 480 v_ss+
FLAG 704 576 v_ss-
FLAG 592 544 v_in
FLAG 896 -224 v_ss+
FLAG 880 -112 v_ss-
FLAG 848 -192 0
FLAG 992 -192 v_sq_0
IOPIN 992 -192 Out
FLAG 1632 480 v_ss+
FLAG 1616 592 v_ss-
FLAG 1584 544 0
FLAG 1808 512 v_sq_90
IOPIN 1808 512 Out
FLAG 672 -160 v_sine
IOPIN 672 -160 Out
FLAG 944 736 ve5
FLAG 976 736 ve4
FLAG 1008 736 ve3
FLAG 1040 736 ve2
FLAG 1536 432 ve5
FLAG 1536 400 ve4
FLAG 1536 368 ve3
FLAG 1536 336 ve2
FLAG 1056 208 ve5
FLAG 1088 208 ve4
FLAG 1120 208 ve3
FLAG 1152 208 ve2
FLAG 512 0 ve5
FLAG 512 32 ve4
FLAG 512 64 ve3
FLAG 512 96 ve2
FLAG 240 368 ve2
FLAG 240 400 ve3
FLAG 240 432 ve4
FLAG 240 464 ve5
FLAG 160 368 v_ss-
FLAG 160 400 v_ss-
FLAG 160 432 v_ss-
FLAG 160 464 v_ss+
FLAG 896 -128 0
FLAG 912 -128 0
FLAG 1648 576 0
FLAG 1632 576 0
SYMBOL voltage 160 128 R0
SYMATTR InstName Vss1
SYMATTR Value 5
SYMBOL voltage 304 128 R0
SYMATTR InstName Vss2
SYMATTR Value -5
SYMBOL voltage 16 128 R0
SYMATTR InstName Vin
SYMATTR Value 1µ
SYMBOL res 1376 368 R90
WINDOW 0 0 56 VBottom 2
WINDOW 3 32 56 VTop 2
SYMATTR InstName R1
SYMATTR Value {R}
SYMBOL res 1136 16 M90
WINDOW 0 0 56 VBottom 2
WINDOW 3 32 56 VTop 2
SYMATTR InstName R2
SYMATTR Value {R}
SYMBOL res 672 64 R270
WINDOW 0 32 56 VTop 2
WINDOW 3 0 56 VBottom 2
SYMATTR InstName R3
SYMATTR Value {R}
SYMBOL res 976 512 R90
WINDOW 0 0 56 VBottom 2
WINDOW 3 32 56 VTop 2
SYMATTR InstName R4
SYMATTR Value {R}
SYMBOL res 816 384 R90
WINDOW 0 0 56 VBottom 2
WINDOW 3 32 56 VTop 2
SYMATTR InstName R5
SYMATTR Value 500k
SYMBOL res 672 288 R180
WINDOW 0 36 76 Left 2
WINDOW 3 36 40 Left 2
SYMATTR InstName R6
SYMATTR Value 10k
SYMBOL OpAmps/LT1028 704 464 R0
SYMATTR InstName U1
SYMBOL OpAmps/LT1028 1104 448 R0
SYMATTR InstName U2
SYMBOL OpAmps/LT1028 1360 96 M0
SYMATTR InstName U3
SYMBOL OpAmps/LT1028 944 112 R180
SYMATTR InstName U4
SYMBOL caps 1104 160 R90
SYMATTR InstName X3
SYMBOL caps 1488 384 R0
SYMATTR InstName X2
SYMBOL caps 992 688 R90
SYMATTR InstName X1
SYMBOL caps 560 48 R180
SYMATTR InstName X4
SYMBOL Comparators/LT1016 1632 464 R0
SYMATTR InstName U7
SYMBOL Comparators/LT1016 896 -240 R0
SYMATTR InstName U8
TEXT 240 -256 Left 2 !.param R 1k\n.tran 0 150us 100us
